Circuit: * C:\Users\Knabb\Bureaublad\Studie\Systeemontwerp\Sensors\Temperatuur\versterker\Ltspice_hopen_en_janken.asc

WARNING: Less than two connections to node N007.  This node is used by V:U4:OSO.
WARNING: Less than two connections to node N024.  This node is used by V:U6:OSO.
WARNING: Less than two connections to node N015.  This node is used by M1.
WARNING: Less than two connections to node NC_01.  This node is used by M2.
Direct Newton iteration failed to find .op point.  (Use ".option noopiter" to skip.)
Starting Gmin stepping
Gmin = 10
vernier = 0.5
Gmin = 2.07126
vernier = 0.25
vernier = 0.125
vernier = 0.0625
vernier = 0.03125
Gmin = 2.14262
vernier = 0.015625
vernier = 0.0078125
vernier = 0.00390625
vernier = 0.00195313
Gmin = 2.13949
vernier = 0.000976563
vernier = 0.000488281
Gmin = 0
Gmin stepping failed

Starting source stepping with srcstepmethod=0
Source Step = 3.0303%
Source Step = 33.3333%
Source Step = 63.6364%
Source Step = 93.9394%
Source stepping succeeded in finding the operating point.

.step pt1000=980
.step pt1000=990
.step pt1000=1000
.step pt1000=1010
.step pt1000=1020
.step pt1000=1030
.step pt1000=1040
.step pt1000=1050
.step pt1000=1060
.step pt1000=1070
.step pt1000=1080
.step pt1000=1090
.step pt1000=1100
.step pt1000=1110
.step pt1000=1120
.step pt1000=1130
.step pt1000=1140
.step pt1000=1150
.step pt1000=1160
.step pt1000=1170
.step pt1000=1180
.step pt1000=1190
.step pt1000=1194

Date: Mon Oct 21 12:52:15 2024
Total elapsed time: 26.629 seconds.

tnom = 27
temp = 27
method = modified trap
totiter = 5669
traniter = 2082
tranpoints = 1042
accept = 1042
rejected = 0
matrix size = 366
fillins = 432
solver = Normal
Thread vector: 35.4/16.8[9] 16.7/7.5[9] 7.7/6.2[4] 1.4/2.3[1]  2592/500
Matrix Compiler1: 23.29 KB object code size  14.4/5.4/[3.2]
Matrix Compiler2: 33.44 KB object code size  4.1/8.1/[2.9]

