Circuit: * C:\Users\Knabb\Bureaublad\Studie\Systeemontwerp\Sensors\Temperatuur\versterker\Ltspice_hopen_en_janken.asc

WARNING: Less than two connections to node N007.  This node is used by V:U4:OSO.
WARNING: Less than two connections to node N024.  This node is used by V:U6:OSO.
WARNING: Less than two connections to node N015.  This node is used by M1.
WARNING: Less than two connections to node NC_01.  This node is used by M2.
Direct Newton iteration failed to find .op point.  (Use ".option noopiter" to skip.)
Starting Gmin stepping
Gmin = 10
vernier = 0.5
Gmin = 2.07126
vernier = 0.25
vernier = 0.125
vernier = 0.0625
vernier = 0.03125
Gmin = 2.14262
vernier = 0.0416667
Gmin = 1.95175
vernier = 0.0555555
vernier = 0.074074
Gmin = 1.66957
vernier = 0.0987653
vernier = 0.131687
vernier = 0.0658435
Gmin = 1.3903
vernier = 0.0877914
Gmin = 1.14951
vernier = 0.117055
vernier = 0.0585276
vernier = 0.0292638
Gmin = 1.04618
vernier = 0.0146319
vernier = 0.00731595
Gmin = 1.02726
vernier = 0.00975459
vernier = 0.0048773
vernier = 0.00243865
Gmin = 1.01915
vernier = 0.00121932
vernier = 0.000609662
vernier = 0.000457246
Gmin = 1.01853
Gmin = 0
Gmin stepping failed

Starting source stepping with srcstepmethod=0
Source Step = 3.0303%
Source Step = 33.3333%
Source Step = 63.6364%
Source Step = 93.9394%
Source stepping succeeded in finding the operating point.

.step pt1000=980
.step pt1000=981
.step pt1000=982
.step pt1000=983
.step pt1000=984
.step pt1000=985
.step pt1000=986
.step pt1000=987
.step pt1000=988
.step pt1000=989
.step pt1000=990
.step pt1000=991
.step pt1000=992
.step pt1000=993
.step pt1000=994
.step pt1000=995
.step pt1000=996
.step pt1000=997
.step pt1000=998
.step pt1000=999
.step pt1000=1000
.step pt1000=1001
.step pt1000=1002
.step pt1000=1003
.step pt1000=1004
.step pt1000=1005
.step pt1000=1006
.step pt1000=1007
.step pt1000=1008
.step pt1000=1009
.step pt1000=1010
.step pt1000=1011
.step pt1000=1012
.step pt1000=1013
.step pt1000=1014
.step pt1000=1015
.step pt1000=1016
.step pt1000=1017
.step pt1000=1018
.step pt1000=1019
.step pt1000=1020
.step pt1000=1021
.step pt1000=1022
.step pt1000=1023
.step pt1000=1024
.step pt1000=1025
.step pt1000=1026
.step pt1000=1027
.step pt1000=1028
.step pt1000=1029
.step pt1000=1030
.step pt1000=1031
.step pt1000=1032
.step pt1000=1033
.step pt1000=1034
.step pt1000=1035
.step pt1000=1036
.step pt1000=1037
.step pt1000=1038
.step pt1000=1039
.step pt1000=1040
.step pt1000=1041
.step pt1000=1042
.step pt1000=1043
.step pt1000=1044
.step pt1000=1045
.step pt1000=1046
.step pt1000=1047
.step pt1000=1048
.step pt1000=1049
.step pt1000=1050
.step pt1000=1051
.step pt1000=1052
.step pt1000=1053
.step pt1000=1054
.step pt1000=1055
.step pt1000=1056
.step pt1000=1057
.step pt1000=1058
.step pt1000=1059
.step pt1000=1060
.step pt1000=1061
.step pt1000=1062
.step pt1000=1063
.step pt1000=1064
.step pt1000=1065
.step pt1000=1066
.step pt1000=1067
.step pt1000=1068
.step pt1000=1069
.step pt1000=1070
.step pt1000=1071
.step pt1000=1072
.step pt1000=1073
.step pt1000=1074
.step pt1000=1075
.step pt1000=1076
.step pt1000=1077
.step pt1000=1078
.step pt1000=1079
.step pt1000=1080
.step pt1000=1081
.step pt1000=1082
.step pt1000=1083
.step pt1000=1084
.step pt1000=1085
.step pt1000=1086
.step pt1000=1087
.step pt1000=1088
.step pt1000=1089
.step pt1000=1090
.step pt1000=1091
.step pt1000=1092
.step pt1000=1093
.step pt1000=1094
.step pt1000=1095
.step pt1000=1096
.step pt1000=1097
.step pt1000=1098
.step pt1000=1099
.step pt1000=1100
.step pt1000=1101
.step pt1000=1102
.step pt1000=1103
.step pt1000=1104
.step pt1000=1105
.step pt1000=1106
.step pt1000=1107
.step pt1000=1108
.step pt1000=1109
.step pt1000=1110
.step pt1000=1111
.step pt1000=1112
.step pt1000=1113
.step pt1000=1114
.step pt1000=1115
.step pt1000=1116
.step pt1000=1117
.step pt1000=1118
.step pt1000=1119
.step pt1000=1120
.step pt1000=1121
.step pt1000=1122
.step pt1000=1123
.step pt1000=1124
.step pt1000=1125
.step pt1000=1126
.step pt1000=1127
.step pt1000=1128
.step pt1000=1129
.step pt1000=1130
.step pt1000=1131
.step pt1000=1132
.step pt1000=1133
.step pt1000=1134
.step pt1000=1135
.step pt1000=1136
.step pt1000=1137
.step pt1000=1138
.step pt1000=1139
.step pt1000=1140
.step pt1000=1141
.step pt1000=1142
.step pt1000=1143
.step pt1000=1144
.step pt1000=1145
.step pt1000=1146
.step pt1000=1147
.step pt1000=1148
.step pt1000=1149
.step pt1000=1150
.step pt1000=1151
.step pt1000=1152
.step pt1000=1153
.step pt1000=1154
.step pt1000=1155
.step pt1000=1156
.step pt1000=1157
.step pt1000=1158
.step pt1000=1159
.step pt1000=1160
.step pt1000=1161
.step pt1000=1162
.step pt1000=1163
.step pt1000=1164
.step pt1000=1165
.step pt1000=1166
.step pt1000=1167
.step pt1000=1168
.step pt1000=1169
.step pt1000=1170
.step pt1000=1171
.step pt1000=1172
.step pt1000=1173
.step pt1000=1174
.step pt1000=1175
.step pt1000=1176
.step pt1000=1177
.step pt1000=1178
.step pt1000=1179
.step pt1000=1180
.step pt1000=1181
.step pt1000=1182
.step pt1000=1183
.step pt1000=1184
.step pt1000=1185
.step pt1000=1186
.step pt1000=1187
.step pt1000=1188
.step pt1000=1189
.step pt1000=1190
.step pt1000=1191
.step pt1000=1192
.step pt1000=1193
.step pt1000=1194

Date: Wed Oct 23 07:50:22 2024
Total elapsed time: 280.356 seconds.

tnom = 27
temp = 27
method = modified trap
totiter = 7156
traniter = 2082
tranpoints = 1042
accept = 1042
rejected = 0
matrix size = 366
fillins = 373
solver = Normal
Thread vector: 35.5/19.3[9] 11.4/6.4[9] 6.1/5.2[3] 1.4/2.4[1]  2592/500
Matrix Compiler1: 21.99 KB object code size  14.7/3.4/[2.9]
Matrix Compiler2: 32.40 KB object code size  4.5/9.4/[3.1]

