Circuit: * C:\Users\Knabb\Bureaublad\Studie\Systeemontwerp\Sensors\Temperatuur\versterker\Ltspice_hopen_en_janken.asc

WARNING: Less than two connections to node N007.  This node is used by V:U4:OSO.
WARNING: Less than two connections to node N024.  This node is used by V:U6:OSO.
WARNING: Less than two connections to node N015.  This node is used by M1.
WARNING: Less than two connections to node NC_01.  This node is used by M2.
Direct Newton iteration failed to find .op point.  (Use ".option noopiter" to skip.)
Starting Gmin stepping
Gmin = 10
vernier = 0.5
Gmin = 2.07126
vernier = 0.666667
vernier = 0.333333
vernier = 0.166667
vernier = 0.0833333
Gmin = 1.39652
vernier = 0.0416667
vernier = 0.0208333
vernier = 0.0104167
vernier = 0.00520833
Gmin = 1.37854
vernier = 0.00260417
vernier = 0.00130208
vernier = 0.000651042
vernier = 0.000488281
Gmin = 1.37742
Gmin = 0
Gmin stepping failed

Starting source stepping with srcstepmethod=0
Source Step = 3.0303%
Source Step = 33.3333%
Source Step = 63.6364%
Source Step = 93.9394%
Source Step = 93.9542%
Source Step = 93.9838%
Source Step = 94.0134%
Source Step = 94.043%
Source Step = 94.0726%
vernier = 0.00146484
Source Step = 94.1066%
Source Step = 94.151%
Source Step = 94.1954%
Source Step = 94.2398%
Source Step = 94.2842%
vernier = 0.00219727
Source Step = 94.333%
Source Step = 94.3996%
Source Step = 94.4661%
Source Step = 94.5327%
Source Step = 94.5993%
vernier = 0.0032959
Source Step = 94.6692%
Source Step = 94.7691%
Source Step = 94.869%
Source Step = 94.9689%
Source Step = 95.0687%
Source Step = 95.1686%
vernier = 0.00494385
Source Step = 95.3184%
Source Step = 95.4682%
Source Step = 95.618%
Source Step = 95.7679%
Source Step = 95.9177%
vernier = 0.00741577
Source Step = 96.1349%
Source Step = 96.3596%
Source Step = 96.5843%
Source Step = 96.8091%
Source Step = 97.0338%
vernier = 0.0111237
Source Step = 97.3484%
Source Step = 97.6855%
Source Step = 98.0226%
Source Step = 98.3596%
Source Step = 98.6967%
vernier = 0.0166855
Source Step = 99.1518%
Source Step = 99.6574%
Source stepping succeeded in finding the operating point.

Ignoring empty pin current: Ix(_u1:100)
Ignoring empty pin current: Ix(_u1:101)
Ignoring empty pin current: Ix(_u1:102)
Ignoring empty pin current: Ix(_u1:103)
Ignoring empty pin current: Ix(_u1:104)
Ignoring empty pin current: Ix(_u2:100)
Ignoring empty pin current: Ix(_u2:101)
Ignoring empty pin current: Ix(_u2:102)
Ignoring empty pin current: Ix(_u2:103)
Ignoring empty pin current: Ix(_u2:104)
Ignoring empty pin current: Ix(u10:vin-)
Ignoring empty pin current: Ix(u10:vin+)
Ignoring empty pin current: Ix(u11:vin-)
Ignoring empty pin current: Ix(u11:vin+)
Ignoring empty pin current: Ix(_u1:100)
Ignoring empty pin current: Ix(_u1:101)
Ignoring empty pin current: Ix(_u1:102)
Ignoring empty pin current: Ix(_u1:103)
Ignoring empty pin current: Ix(_u1:104)
Ignoring empty pin current: Ix(_u2:100)
Ignoring empty pin current: Ix(_u2:101)
Ignoring empty pin current: Ix(_u2:102)
Ignoring empty pin current: Ix(_u2:103)
Ignoring empty pin current: Ix(_u2:104)
Ignoring empty pin current: Ix(u10:vin-)
Ignoring empty pin current: Ix(u10:vin+)
Ignoring empty pin current: Ix(u11:vin-)
Ignoring empty pin current: Ix(u11:vin+)
.step pt1000=980
.step pt1000=981
.step pt1000=982
.step pt1000=983
.step pt1000=984
.step pt1000=985
.step pt1000=986
