Circuit: * C:\Users\Knabb\Desktop\Studie\Systeemontwerp\Sensors\Temperatuur\versterker\Ltspice_hopen_en_janken.asc

Warning: Multiple definitions of model "2scr375p" Type: BJT
Warning: Multiple definitions of model "bc857b" Type: BJT
Warning: Multiple definitions of model "bc847c" Type: BJT
Warning: Multiple definitions of model "bc847b" Type: BJT
WARNING: Less than two connections to node n007.  This node is used by v:u4:oso.
WARNING: Less than two connections to node n021.  This node is used by v:u6:oso.
Direct Newton iteration failed to find .op point.  (Use ".option noopiter" to skip.)
Starting Gmin stepping
Gmin = 10
vernier = 0.5
Gmin = 2.07126
vernier = 0.25
vernier = 0.125
vernier = 0.0625
vernier = 0.03125
Gmin = 2.14262
vernier = 0.015625
vernier = 0.0078125
vernier = 0.00390625
vernier = 0.00195312
Gmin = 2.14781
vernier = 0.000976562
vernier = 0.000488281
Gmin = 0
Gmin stepping failed

Starting source stepping with srcstepmethod=0
Source Step = 3.0303%
Source Step = 33.3333%
Source Step = 63.6364%
Source Step = 93.9394%
Source stepping succeeded in finding the operating point.


Date: Sun Oct 13 21:36:25 2024
Total elapsed time: 0.477 seconds.

tnom = 27
temp = 27
method = modified trap
totiter = 3924
traniter = 2088
tranpoints = 1045
accept = 1045
rejected = 0
matrix size = 352
fillins = 408
solver = Normal
Avg thread counts: 2.4/3.5/1.9/1.5
Matrix Compiler1: 21.96 KB object code size  5.8/3.1/[2.3]
Matrix Compiler2: 32.24 KB object code size  2.5/4.5/[1.5]

